units(length='cm', time='s', quantity='mol', act_energy='cal/mol')

ideal_gas(name='gas',
          elements="N O H C",
          species="""N2        O2        H2        H2O       H2O2
                     CO        CO2       CH2O      CH4       CH3OH
                     CH3OOH    C2H2      CH2CO     C2H4      C2H6
                     C2H3CHO   C3H6      C4H4      CYC5H6    C6H4O2
                     C6H6      C6H5OH    CRESOL    C10H8     C10H7OH
                     DIBZFUR   O         H         OH        HO2
                     CH        HCO       CH2       CH2S      CH3
                     CH3O      CH3OO     C2H       HCCO      C2H3
                     CH2CHO    CH3CO     C2H5      C3H3      CH2CHCH2
                     C4H5      CYC5H5    C6H5      C6H5O     RCRESOLO
                     RCRESOLC  C10H7O""",
          reactions='all',
          transport='Mix',
          initial_state=state(temperature=300.0, pressure=OneAtm))

#-------------------------------------------------------------------------------
# Species data
#-------------------------------------------------------------------------------

species(name=u'N2',
        atoms='N:2',
        thermo=(NASA([300.00, 1050.00],
                     [ 3.85321336E+00, -2.44053349E-03,  5.35160392E-06,
                      -3.75608397E-09,  9.22684330E-13, -1.07969550E+03,
                       1.60217419E+00]),
                NASA([1050.00, 3500.00],
                     [ 2.71287897E+00,  1.90359754E-03, -8.54297556E-07,
                       1.84170938E-10, -1.54715988E-14, -8.40225273E+02,
                       7.15926558E+00])),
        transport=gas_transport(geom='linear',
                                diam=3.621,
                                well_depth=97.53,
                                polar=1.76,
                                rot_relax=4.0))

species(name=u'O2',
        atoms='O:2',
        thermo=(NASA([300.00, 760.00],
                     [ 3.46035080E+00, -8.85011121E-04,  5.15281056E-06,
                      -5.40712413E-09,  1.87809542E-12, -1.02942573E+03,
                       5.02236126E+00]),
                NASA([760.00, 3500.00],
                     [ 2.81750648E+00,  2.49838007E-03, -1.52493521E-06,
                       4.50547608E-10, -4.87702792E-14, -9.31713392E+02,
                       7.94729337E+00])),
        transport=gas_transport(geom='linear',
                                diam=3.458,
                                well_depth=107.4,
                                polar=1.6,
                                rot_relax=3.8))

species(name=u'H2',
        atoms='H:2',
        thermo=(NASA([300.00, 750.00],
                     [ 3.08866003E+00,  2.53968841E-03, -5.72992027E-06,
                       5.71701843E-09, -1.98865970E-12, -9.92148124E+02,
                      -2.43823459E+00]),
                NASA([750.00, 3500.00],
                     [ 3.73110902E+00, -8.86706214E-04,  1.12286897E-06,
                      -3.74349782E-10,  4.17963674E-14, -1.08851547E+03,
                      -5.35285855E+00])),
        transport=gas_transport(geom='linear',
                                diam=2.92,
                                well_depth=38.0,
                                polar=0.79,
                                rot_relax=280.0))

species(name=u'H2O',
        atoms='H:2 O:1',
        thermo=(NASA([300.00, 1590.00],
                     [ 4.03530937E+00, -6.87559833E-04,  2.86629214E-06,
                      -1.50552360E-09,  2.55006790E-13, -3.02783278E+04,
                      -1.99201641E-01]),
                NASA([1590.00, 3500.00],
                     [ 2.30940463E+00,  3.65433887E-03, -1.22983871E-06,
                       2.11931683E-10, -1.50333493E-14, -2.97294901E+04,
                       8.92765177E+00])),
        transport=gas_transport(geom='nonlinear',
                                diam=2.605,
                                well_depth=572.4,
                                dipole=1.844,
                                rot_relax=4.0))

species(name=u'H2O2',
        atoms='H:2 O:2',
        thermo=(NASA([300.00, 1180.00],
                     [ 2.91896355E+00,  9.92397296E-03, -8.56537418E-06,
                       4.23738723E-09, -8.61930485E-13, -1.76139998E+04,
                       8.76340177E+00]),
                NASA([1180.00, 3500.00],
                     [ 4.56163072E+00,  4.35560969E-03, -1.48694629E-06,
                       2.38275424E-10, -1.46610352E-14, -1.80016693E+04,
                       5.66597119E-01])),
        transport=gas_transport(geom='nonlinear',
                                diam=3.458,
                                well_depth=107.4,
                                rot_relax=3.8))

species(name=u'CO',
        atoms='C:1 O:1',
        thermo=(NASA([300.00, 1000.00],
                     [ 3.81890943E+00, -2.40697343E-03,  5.75226966E-06,
                      -4.28629830E-09,  1.11070419E-12, -1.43689533E+04,
                       2.49992060E+00]),
                NASA([1000.00, 3500.00],
                     [ 2.68595014E+00,  2.12486373E-03, -1.04548608E-06,
                       2.45538864E-10, -2.22550981E-14, -1.41423615E+04,
                       7.96579426E+00])),
        transport=gas_transport(geom='linear',
                                diam=3.65,
                                well_depth=98.1,
                                polar=1.95,
                                rot_relax=1.8))

species(name=u'CO2',
        atoms='C:1 O:2',
        thermo=(NASA([300.00, 1620.00],
                     [ 2.44892797E+00,  8.54596135E-03, -6.60570102E-06,
                       2.52769046E-09, -3.80099332E-13, -4.83922906E+04,
                       9.47557732E+00]),
                NASA([1620.00, 3500.00],
                     [ 5.07830985E+00,  2.05366041E-03, -5.94311265E-07,
                       5.38675131E-11,  1.66346855E-15, -4.92442103E+04,
                      -4.47815290E+00])),
        transport=gas_transport(geom='linear',
                                diam=3.763,
                                well_depth=244.0,
                                polar=2.65,
                                rot_relax=2.1))

species(name=u'CH2O',
        atoms='H:2 C:1 O:1',
        thermo=(NASA([300.00, 930.00],
                     [ 3.13463322E+00,  1.80037482E-03,  8.80336316E-06,
                      -8.92465077E-09,  2.63639286E-12, -1.50171301E+04,
                       7.57920580E+00]),
                NASA([930.00, 3500.00],
                     [ 1.06639253E+00,  1.06960337E-02, -5.54447373E-06,
                       1.36053696E-09, -1.28442554E-13, -1.46324373E+04,
                       1.74071779E+01])),
        transport=gas_transport(geom='nonlinear',
                                diam=3.59,
                                well_depth=498.0,
                                rot_relax=2.0))

species(name=u'CH4',
        atoms='H:4 C:1',
        thermo=(NASA([300.00, 1070.00],
                     [ 2.85765313E+00,  2.53571100E-03,  9.67916346E-06,
                      -8.69880870E-09,  2.25599770E-12, -1.00357904E+04,
                       4.98969392E+00]),
                NASA([1070.00, 3500.00],
                     [-2.82321416E-01,  1.42739336E-02, -6.77628877E-06,
                       1.55380951E-09, -1.39473841E-13, -9.36383584E+03,
                       2.03507024E+01])),
        transport=gas_transport(geom='nonlinear',
                                diam=3.746,
                                well_depth=141.4,
                                polar=2.6,
                                rot_relax=13.0))

species(name=u'CH3OH',
        atoms='H:4 C:1 O:1',
        thermo=(NASA([300.00, 700.00],
                     [ 2.88895785E+00,  4.85657077E-03,  1.59348814E-05,
                      -2.08247943E-08,  7.94986176E-12, -2.53716460E+04,
                       1.03674509E+01]),
                NASA([700.00, 3500.00],
                     [ 9.34193000E-01,  1.60266556E-02, -8.00101466E-06,
                       1.97129714E-09, -1.91599484E-13, -2.50979789E+04,
                       1.91008457E+01])),
        transport=gas_transport(geom='nonlinear',
                                diam=3.626,
                                well_depth=481.8,
                                rot_relax=1.0))

species(name=u'CH3OOH',
        atoms='H:4 C:1 O:2',
        thermo=(NASA([300.00, 1800.00],
                     [ 5.93430876E+00,  1.04356674E-02, -3.01974623E-06,
                       1.41830001E-10,  3.83264515E-14, -1.81342471E+04,
                      -2.80822136E+00]),
                NASA([1800.00, 3500.00],
                     [ 5.50146514E+00,  1.13975421E-02, -3.82130848E-06,
                       4.38704910E-10, -2.90617476E-15, -1.79784234E+04,
                      -4.65581411E-01])),
        transport=gas_transport(geom='nonlinear',
                                diam=3.626,
                                well_depth=481.8,
                                rot_relax=1.0))

species(name=u'C2H2',
        atoms='H:2 C:2',
        thermo=(NASA([300.00, 970.00],
                     [ 1.83812159E+00,  1.64533925E-02, -1.93408005E-05,
                       1.24068047E-08, -3.14627391E-12,  2.61425043E+04,
                       9.54239252E+00]),
                NASA([970.00, 3500.00],
                     [ 4.61193612E+00,  5.01498204E-03, -1.65253694E-06,
                       2.49922532E-10, -1.30568636E-14,  2.56043843E+04,
                      -3.75517096E+00])),
        transport=gas_transport(geom='linear',
                                diam=4.1,
                                well_depth=209.0,
                                rot_relax=2.5))

species(name=u'CH2CO',
        atoms='H:2 C:2 O:1',
        thermo=(NASA([300.00, 1410.00],
                     [ 2.49197065E+00,  1.58706066E-02, -1.26271528E-05,
                       5.33991909E-09, -9.11597189E-13, -7.58486732E+03,
                       1.06694385E+01]),
                NASA([1410.00, 3500.00],
                     [ 6.03578795E+00,  5.81722422E-03, -1.93206512E-06,
                       2.83140054E-10, -1.50051612E-14, -8.58422380E+03,
                      -7.64505060E+00])),
        transport=gas_transport(geom='nonlinear',
                                diam=3.97,
                                well_depth=436.0,
                                rot_relax=2.0))

species(name=u'C2H4',
        atoms='H:4 C:2',
        thermo=(NASA([300.00, 1800.00],
                     [ 2.66161697E-01,  1.94272328E-02, -1.14541158E-05,
                       3.49691054E-09, -4.39228267E-13,  5.45399123E+03,
                       1.95264329E+01]),
                NASA([1800.00, 3500.00],
                     [ 4.49333672E+00,  1.00335105E-02, -3.62601388E-06,
                       5.97613541E-10, -3.65481279E-14,  3.93220822E+03,
                      -3.35192020E+00])),
        transport=gas_transport(geom='nonlinear',
                                diam=3.971,
                                well_depth=280.8,
                                rot_relax=1.5))

species(name=u'C2H6',
        atoms='H:6 C:2',
        thermo=(NASA([300.00, 1800.00],
                     [-2.74461309E-01,  2.56422430E-02, -1.44720586E-05,
                       4.30555164E-09, -5.30740425E-13, -1.10464360E+04,
                       2.20452775E+01]),
                NASA([1800.00, 3500.00],
                     [ 4.39373503E+00,  1.52684734E-02, -5.82725051E-06,
                       1.10377088E-09, -8.60486537E-14, -1.27269866E+04,
                      -3.21997495E+00])),
        transport=gas_transport(geom='nonlinear',
                                diam=4.302,
                                well_depth=252.3,
                                rot_relax=1.5))

species(name=u'C2H3CHO',
        atoms='H:4 C:3 O:1',
        thermo=(NASA([300.00, 1340.00],
                     [ 3.40917666E-01,  3.51200360E-02, -2.88391725E-05,
                       1.22832633E-08, -2.12384107E-12, -1.16562372E+04,
                       2.26803642E+01]),
                NASA([1340.00, 3500.00],
                     [ 6.70517760E+00,  1.61222451E-02, -7.57298869E-06,
                       1.70307233E-09, -1.49924851E-13, -1.33618589E+04,
                      -9.88613663E+00])),
        transport=gas_transport(geom='nonlinear',
                                diam=4.12,
                                well_depth=443.2,
                                rot_relax=1.0))

species(name=u'C3H6',
        atoms='H:6 C:3',
        thermo=(NASA([300.00, 1800.00],
                     [-2.61886761E-01,  3.20704567E-02, -2.02723602E-05,
                       6.66956086E-09, -8.90307969E-13,  1.26157099E+03,
                       2.37162283E+01]),
                NASA([1800.00, 3500.00],
                     [ 9.21549195E+00,  1.10096151E-02, -2.72165887E-06,
                       1.69301120E-10,  1.25058839E-14, -2.15028535E+03,
                      -2.75773224E+01])),
        transport=gas_transport(geom='nonlinear',
                                diam=4.14,
                                well_depth=307.8,
                                rot_relax=1.0))

species(name=u'C4H4',
        atoms='H:4 C:4',
        thermo=(NASA([300.00, 1190.00],
                     [ 4.03184847E-01,  3.66937767E-02, -3.27936077E-05,
                       1.57416564E-08, -3.10035746E-12,  3.27321448E+04,
                       2.15965194E+01]),
                NASA([1190.00, 3500.00],
                     [ 6.36293592E+00,  1.66610000E-02, -7.54220850E-06,
                       1.59521425E-09, -1.28415834E-13,  3.13137240E+04,
                      -8.19255288E+00])),
        transport=gas_transport(geom='nonlinear',
                                diam=5.18,
                                well_depth=357.0,
                                rot_relax=1.0))

species(name=u'CYC5H6',
        atoms='H:6 C:5',
        thermo=(NASA([300.00, 1020.00],
                     [-6.32922867E+00,  6.93993183E-02, -6.82623529E-05,
                       3.63968870E-08, -8.08274648E-12,  1.54866915E+04,
                       5.11475893E+01]),
                NASA([1020.00, 3500.00],
                     [ 1.70141558E+00,  3.79065957E-02, -2.19495256E-05,
                       6.12706526E-09, -6.63672518E-13,  1.38484401E+04,
                       1.22453451E+01])),
        transport=gas_transport(geom='nonlinear',
                                diam=5.2,
                                well_depth=408.0,
                                rot_relax=1.0))

species(name=u'C6H4O2',
        atoms='H:4 C:6 O:2',
        thermo=(NASA([300.00, 1410.00],
                     [-5.23446578E+00,  7.73770890E-02, -7.06201498E-05,
                       3.20580235E-08, -5.66410367E-12, -1.58009124E+04,
                       5.25540058E+01]),
                NASA([1410.00, 3500.00],
                     [ 1.74929577E+01,  1.29021286E-02, -2.02976642E-06,
                      -3.72417846E-10,  8.59745727E-14, -2.22100459E+04,
                      -6.49015838E+01])),
        transport=gas_transport(geom='nonlinear',
                                diam=5.5,
                                well_depth=450.0,
                                rot_relax=1.0))

species(name=u'C6H6',
        atoms='H:6 C:6',
        thermo=(NASA([300.00, 1550.00],
                     [-6.33361145E+00,  6.93997541E-02, -5.72004958E-05,
                       2.35161421E-08, -3.76756698E-12,  9.21714860E+03,
                       5.01102066E+01]),
                NASA([1550.00, 3500.00],
                     [ 1.57365829E+01,  1.24444139E-02, -2.08242468E-06,
                      -1.90555168E-10,  5.60938650E-14,  2.37538837E+03,
                      -6.60380946E+01])),
        transport=gas_transport(geom='nonlinear',
                                diam=5.23,
                                well_depth=468.5,
                                polar=10.3,
                                rot_relax=1.0))

species(name=u'C6H5OH',
        atoms='H:6 C:6 O:1',
        thermo=(NASA([300.00, 1330.00],
                     [-5.47325435E+00,  7.87541571E-02, -7.33732049E-05,
                       3.42982836E-08, -6.29384372E-12, -1.28778595E+04,
                       4.85843830E+01]),
                NASA([1330.00, 3500.00],
                     [ 1.39867712E+01,  2.02277643E-02, -7.36599500E-06,
                       1.21196288E-09, -7.46105018E-14, -1.80542263E+04,
                      -5.08485811E+01])),
        transport=gas_transport(geom='nonlinear',
                                diam=5.5,
                                well_depth=450.0,
                                rot_relax=1.0))

species(name=u'CRESOL',
        atoms='H:8 C:7 O:1',
        thermo=(NASA([300.00, 1310.00],
                     [-4.41843936E+00,  8.43645604E-02, -7.22335735E-05,
                       3.22565297E-08, -5.83733025E-12, -1.73470426E+04,
                       4.54334869E+01]),
                NASA([1310.00, 3500.00],
                     [ 1.22673687E+01,  3.34155283E-02, -1.38949871E-05,
                       2.56768166E-09, -1.71519559E-13, -2.17187243E+04,
                      -3.95715124E+01])),
        transport=gas_transport(geom='nonlinear',
                                diam=5.64,
                                well_depth=621.1,
                                rot_relax=1.0))

species(name=u'C10H8',
        atoms='H:8 C:10',
        thermo=(NASA([300.00, 1370.00],
                     [-8.71832426E+00,  1.08564074E-01, -9.40254318E-05,
                       4.10014902E-08, -7.10574258E-12,  1.66434413E+04,
                       6.15987876E+01]),
                NASA([1370.00, 3500.00],
                     [ 1.51184828E+01,  3.89675576E-02, -1.78248659E-05,
                       3.92092279E-09, -3.39215689E-13,  1.01121562E+04,
                      -6.09041102E+01])),
        transport=gas_transport(geom='nonlinear',
                                diam=6.18,
                                well_depth=630.4,
                                polar=16.5,
                                rot_relax=1.0))

species(name=u'C10H7OH',
        atoms='H:8 C:10 O:1',
        thermo=(NASA([300.00, 1730.00],
                     [-3.09194614E+00,  9.23929369E-02, -6.74411581E-05,
                       2.40273261E-08, -3.35424965E-12, -5.70514482E+03,
                       3.79602738E+01]),
                NASA([1730.00, 3500.00],
                     [ 2.61818224E+01,  2.47079229E-02, -8.75472975E-06,
                       1.41213209E-09, -8.61580367E-14, -1.58338687E+04,
                      -1.19314317E+02])),
        transport=gas_transport(geom='nonlinear',
                                diam=6.362,
                                well_depth=663.45,
                                rot_relax=1.0))

species(name=u'DIBZFUR',
        atoms='H:8 C:12 O:1',
        thermo=(NASA([300.00, 1410.00],
                     [-1.16970901E+01,  1.36443614E-01, -1.22152896E-04,
                       5.40932248E-08, -9.37220078E-12,  5.02765510E+03,
                       7.60497478E+01]),
                NASA([1410.00, 3500.00],
                     [ 2.49525256E+01,  3.24730728E-02, -1.15459374E-05,
                       1.79679054E-09, -9.97833662E-14, -5.30753651E+03,
                      -1.13355893E+02])),
        transport=gas_transport(geom='nonlinear',
                                diam=6.31,
                                well_depth=676.5,
                                rot_relax=1.0))

species(name=u'O',
        atoms='O:1',
        thermo=(NASA([300.00, 950.00],
                     [ 2.95200330E+00, -1.68459131E-03,  2.55897854E-06,
                      -1.77574473E-09,  4.66034833E-13,  2.91471652E+04,
                       2.94136507E+00]),
                NASA([950.00, 3500.00],
                     [ 2.57318360E+00, -8.95609984E-05,  4.05096303E-08,
                      -8.39812674E-12,  9.43621991E-16,  2.92191409E+04,
                       4.74952023E+00])),
        transport=gas_transport(geom='atom',
                                diam=2.75,
                                well_depth=80.0))

species(name=u'H',
        atoms='H:1',
        thermo=(NASA([300.00, 1490.00],
                     [ 2.50000000E+00, -4.07455160E-15,  5.98527266E-18,
                      -3.43074982E-21,  6.74775716E-25,  2.54716200E+04,
                      -4.60117600E-01]),
                NASA([1490.00, 3500.00],
                     [ 2.50000000E+00,  7.40336223E-15, -5.56967416E-18,
                       1.73924876E-21, -1.92673709E-25,  2.54716200E+04,
                      -4.60117600E-01])),
        transport=gas_transport(geom='atom',
                                diam=2.05,
                                well_depth=145.0))

species(name=u'OH',
        atoms='H:1 O:1',
        thermo=(NASA([300.00, 880.00],
                     [ 3.37995109E+00,  6.13440526E-04, -1.06464235E-06,
                       1.14489214E-09, -3.76228211E-13,  3.45699735E+03,
                       2.70689352E+00]),
                NASA([880.00, 3500.00],
                     [ 3.62538436E+00, -5.02165281E-04,  8.36958463E-07,
                      -2.95714531E-10,  3.30350486E-14,  3.41380110E+03,
                       1.55419440E+00])),
        transport=gas_transport(geom='linear',
                                diam=2.75,
                                well_depth=80.0))

species(name=u'HO2',
        atoms='H:1 O:2',
        thermo=(NASA([300.00, 1540.00],
                     [ 2.85241381E+00,  5.40257188E-03, -3.80535043E-06,
                       1.51268170E-09, -2.40354212E-13,  4.47851086E+02,
                       9.84483831E+00]),
                NASA([1540.00, 3500.00],
                     [ 4.16318067E+00,  1.99798265E-03, -4.89192086E-07,
                       7.71153172E-11, -7.30772104E-15,  4.41348948E+01,
                       2.95517985E+00])),
        transport=gas_transport(geom='nonlinear',
                                diam=3.458,
                                well_depth=107.4,
                                rot_relax=1.0))

species(name=u'CH',
        atoms='H:1 C:1',
        thermo=(NASA([300.00, 1720.00],
                     [ 3.85901271E+00, -1.97439999E-03,  3.34750385E-06,
                      -1.56074708E-09,  2.43995183E-13,  7.03804355E+04,
                       4.73936215E-01]),
                NASA([1720.00, 3500.00],
                     [ 1.56762354E+00,  3.35441204E-03, -1.29971595E-06,
                       2.40500907E-10, -1.78141164E-14,  7.11686733E+04,
                       1.27712404E+01])),
        transport=gas_transport(geom='linear',
                                diam=2.75,
                                well_depth=80.0))

species(name=u'HCO',
        atoms='H:1 C:1 O:1',
        thermo=(NASA([300.00, 920.00],
                     [ 3.74218864E+00,  2.75844059E-05,  6.16298892E-06,
                      -5.89177898E-09,  1.73431136E-12,  4.07330951E+03,
                       5.45007090E+00]),
                NASA([920.00, 3500.00],
                     [ 2.44772078E+00,  5.65570555E-03, -3.01329556E-06,
                       7.57702524E-10, -7.26129631E-14,  4.31149160E+03,
                       1.15871953E+01])),
        transport=gas_transport(geom='nonlinear',
                                diam=3.59,
                                well_depth=498.0))

species(name=u'CH2',
        atoms='H:2 C:1',
        thermo=(NASA([300.00, 900.00],
                     [ 3.99717917E+00, -5.88806826E-04,  4.80279129E-06,
                      -4.04455721E-09,  1.14445133E-12,  4.53440763E+04,
                       7.32567433E-01]),
                NASA([900.00, 3500.00],
                     [ 3.24505871E+00,  2.75395076E-03, -7.68471343E-07,
                       8.23040037E-11, -1.89900250E-15,  4.54794580E+04,
                       4.28187007E+00])),
        transport=gas_transport(geom='linear',
                                diam=3.8,
                                well_depth=144.0))

species(name=u'CH2S',
        atoms='H:2 C:1',
        thermo=(NASA([300.00, 900.00],
                     [ 4.62572654E+00, -5.00173140E-03,  1.35068890E-05,
                      -1.09068642E-08,  3.09604394E-12,  4.98267521E+04,
                      -2.67749711E+00]),
                NASA([900.00, 3500.00],
                     [ 2.57518275E+00,  4.11179659E-03, -1.68232435E-06,
                       3.44404948E-10, -2.93085968E-14,  5.01958500E+04,
                       6.99914504E+00])),
        transport=gas_transport(geom='linear',
                                diam=3.8,
                                well_depth=144.0))

species(name=u'CH3',
        atoms='H:3 C:1',
        thermo=(NASA([300.00, 1270.00],
                     [ 3.53327401E+00,  3.61488008E-03,  1.00739068E-06,
                      -1.39958516E-09,  3.34014277E-13,  1.63060366E+04,
                       2.10113860E+00]),
                NASA([1270.00, 3500.00],
                     [ 2.57723974E+00,  6.62601164E-03, -2.54906392E-06,
                       4.67320141E-10, -3.34867663E-14,  1.65488693E+04,
                       6.94195966E+00])),
        transport=gas_transport(geom='linear',
                                diam=3.8,
                                well_depth=144.0))

species(name=u'CH3O',
        atoms='H:3 C:1 O:1',
        thermo=(NASA([300.00, 700.00],
                     [ 2.13962537E+00,  6.20453130E-03,  1.01791740E-05,
                      -1.49984471E-08,  5.85415708E-12,  9.80135371E+02,
                       1.31002120E+01]),
                NASA([700.00, 3500.00],
                     [ 6.88420582E-01,  1.44971301E-02, -7.59068052E-06,
                       1.92522389E-09, -1.90011116E-13,  1.18330404E+03,
                       1.95838279E+01])),
        transport=gas_transport(geom='nonlinear',
                                diam=3.69,
                                well_depth=417.0,
                                dipole=1.7,
                                rot_relax=2.0))

species(name=u'CH3OO',
        atoms='H:3 C:1 O:2',
        thermo=(NASA([300.00, 1300.00],
                     [ 4.30117244E+00,  9.82168948E-03, -2.62826727E-06,
                      -2.95822349E-10,  1.86451475E-13,  4.69634569E+02,
                       6.17758023E+00]),
                NASA([1300.00, 3500.00],
                     [ 3.46521970E+00,  1.23938518E-02, -5.59614682E-06,
                       1.22616716E-09, -1.06238815E-13,  6.86982281E+02,
                       1.04298931E+01])),
        transport=gas_transport(geom='nonlinear',
                                diam=3.69,
                                well_depth=417.0,
                                dipole=1.7,
                                rot_relax=2.0))

species(name=u'C2H',
        atoms='H:1 C:2',
        thermo=(NASA([300.00, 1770.00],
                     [ 4.71151838E+00,  9.03752455E-04,  1.65468342E-06,
                      -1.07416966E-09,  1.83138118E-13,  6.66457220E+04,
                      -1.51333448E+00]),
                NASA([1770.00, 3500.00],
                     [ 2.62706056E+00,  5.61439161E-03, -2.33738366E-06,
                       4.29433761E-10, -2.92352464E-14,  6.73836200E+04,
                       9.73315238E+00])),
        transport=gas_transport(geom='linear',
                                diam=4.1,
                                well_depth=209.0,
                                rot_relax=2.5))

species(name=u'HCCO',
        atoms='H:1 C:2 O:1',
        thermo=(NASA([300.00, 1800.00],
                     [ 4.44514163E+00,  7.68702606E-03, -5.25978830E-06,
                       1.84635226E-09, -2.57965931E-13,  1.97272856E+04,
                       3.15875175E+00]),
                NASA([1800.00, 3500.00],
                     [ 7.44900312E+00,  1.01177830E-03,  3.02918165E-07,
                      -2.13909391E-10,  2.81815208E-14,  1.86458955E+04,
                      -1.30987733E+01])),
        transport=gas_transport(geom='nonlinear',
                                diam=2.5,
                                well_depth=150.0,
                                rot_relax=1.0))

species(name=u'C2H3',
        atoms='H:3 C:2',
        thermo=(NASA([300.00, 700.00],
                     [ 2.74606708E+00,  3.71341276E-03,  1.60736225E-05,
                      -2.12880236E-08,  8.22995002E-12,  3.33332148E+04,
                       1.05346375E+01]),
                NASA([700.00, 3500.00],
                     [ 7.05094230E-01,  1.53761148E-02, -8.91788178E-06,
                       2.51340905E-09, -2.70561650E-13,  3.36189510E+04,
                       1.96531878E+01])),
        transport=gas_transport(geom='nonlinear',
                                diam=4.1,
                                well_depth=209.0,
                                rot_relax=1.0))

species(name=u'CH2CHO',
        atoms='H:3 C:2 O:1',
        thermo=(NASA([300.00, 1030.00],
                     [ 2.15742069E-01,  2.78720987E-02, -2.67403448E-05,
                       1.43321353E-08, -3.22098924E-12,  6.73694406E+02,
                       2.26661724E+01]),
                NASA([1030.00, 3500.00],
                     [ 3.66502520E+00,  1.44768244E-02, -7.23266377E-06,
                       1.70580456E-09, -1.56345856E-13, -3.68579193E+01,
                       5.92341850E+00])),
        transport=gas_transport(geom='nonlinear',
                                diam=3.97,
                                well_depth=436.0,
                                rot_relax=2.0))

species(name=u'CH3CO',
        atoms='H:3 C:2 O:1',
        thermo=(NASA([300.00, 1800.00],
                     [ 1.83189171E+00,  1.73119663E-02, -1.03948404E-05,
                       3.22021171E-09, -4.07592723E-13, -3.96477680E+03,
                       1.68993055E+01]),